
     RDKit          3D

 21 22  0  0  0  0  0  0  0  0999 V2000
    1.3347    0.1060    0.7637 C   0  0  0  0  0  0  0  0  0  0  0  0
   -2.3076   -0.3332   -0.9147 C   0  0  0  0  0  0  0  0  0  0  0  0
   -1.8720   -1.5802    1.1306 C   0  0  0  0  0  0  0  0  0  0  0  0
    2.0724    1.3057    1.0157 C   0  0  0  0  0  0  0  0  0  0  0  0
   -0.2481    0.7553   -2.1963 C   0  0  0  0  0  0  0  0  0  0  0  0
   -2.7648   -1.1576    0.1021 C   0  0  0  0  0  0  0  0  0  0  0  0
   -0.6943   -0.7954    1.3263 C   0  0  0  0  0  0  0  0  0  0  0  0
   -0.8905    0.2132   -0.9458 C   0  0  0  0  0  0  0  0  0  0  0  0
   -0.1505    0.1912    0.3965 C   0  0  0  0  0  0  0  0  0  0  0  0
    1.0246    1.1963   -2.3906 N   0  0  0  0  0  0  0  0  0  0  0  0
    1.8311    0.1068    2.0200 O   0  0  0  0  0  0  0  0  0  0  0  0
    3.3523    1.5063    0.4174 O   0  0  0  0  0  0  0  0  0  0  0  0
    1.6516    2.2519    1.3661 H   0  0  0  0  0  0  0  0  0  0  0  0
    1.7824   -0.6453    0.0725 H   0  0  0  0  0  0  0  0  0  0  0  0
   -2.6758   -0.0266   -1.8190 H   0  0  0  0  0  0  0  0  0  0  0  0
    3.8612    0.7068    0.7118 H   0  0  0  0  0  0  0  0  0  0  0  0
    1.5127    1.0034   -1.5163 H   0  0  0  0  0  0  0  0  0  0  0  0
   -3.7676   -1.5627    0.0985 H   0  0  0  0  0  0  0  0  0  0  0  0
   -1.0218    0.9054   -2.9880 H   0  0  0  0  0  0  0  0  0  0  0  0
   -2.0727   -2.5955    1.4914 H   0  0  0  0  0  0  0  0  0  0  0  0
    0.0425   -1.5514    1.8581 H   0  0  0  0  0  0  0  0  0  0  0  0
  1  4  1  0
  1  9  1  0
  1 11  1  0
  1 14  1  0
  2  6  2  0
  2  8  1  0
  2 15  1  0
  3  6  1  0
  3  7  2  0
  3 20  1  0
  4 11  1  0
  4 12  1  0
  4 13  1  0
  5  8  1  0
  5 10  2  3
  5 19  1  0
  6 18  1  0
  7  9  1  0
  7 21  1  0
  8  9  2  0
 10 17  1  0
 12 16  1  0
M  END
