
     RDKit          3D

 23 22  0  0  0  0  0  0  0  0999 V2000
   -0.6640    1.9465    0.5737 C   0  0  0  0  0  0  0  0  0  0  0  0
    1.4277   -1.8996    0.0464 N   0  0  0  0  0  0  0  0  0  0  0  0
    0.3892    2.7672   -0.1491 C   0  0  0  0  0  0  0  0  0  0  0  0
   -1.8485   -0.5245    0.1122 C   0  0  0  0  0  0  0  0  0  0  0  0
    0.1692    0.0187   -0.7879 C   0  0  0  0  0  0  0  0  0  0  0  0
   -1.0711    0.7624   -0.3047 C   0  0  0  0  0  0  0  0  0  0  0  0
    1.8566   -3.1789    0.2148 C   0  0  0  0  0  0  0  0  0  0  0  0
    0.6715   -0.9049    0.2715 C   0  0  0  0  0  0  0  0  0  0  0  0
   -1.0052    1.5849    1.5366 H   0  0  0  0  0  0  0  0  0  0  0  0
   -0.0305   -0.4339   -1.7623 H   0  0  0  0  0  0  0  0  0  0  0  0
    1.1005    0.5421   -0.9524 H   0  0  0  0  0  0  0  0  0  0  0  0
   -1.7502    1.3918   -0.9046 H   0  0  0  0  0  0  0  0  0  0  0  0
    0.7376    3.5243    0.5594 H   0  0  0  0  0  0  0  0  0  0  0  0
   -2.7594   -0.5240   -0.4934 H   0  0  0  0  0  0  0  0  0  0  0  0
    0.4627   -0.5891    1.2899 H   0  0  0  0  0  0  0  0  0  0  0  0
   -1.9367   -0.6004    1.1981 H   0  0  0  0  0  0  0  0  0  0  0  0
   -1.4892   -1.5670   -0.0300 H   0  0  0  0  0  0  0  0  0  0  0  0
   -0.1483    3.0940   -1.0517 H   0  0  0  0  0  0  0  0  0  0  0  0
    2.5499   -3.2264    1.0803 H   0  0  0  0  0  0  0  0  0  0  0  0
    2.4257   -3.5328   -0.6816 H   0  0  0  0  0  0  0  0  0  0  0  0
    1.0719   -3.9462    0.3574 H   0  0  0  0  0  0  0  0  0  0  0  0
   -1.3344    2.8152    0.7247 H   0  0  0  0  0  0  0  0  0  0  0  0
    1.1752    2.4806   -0.8472 H   0  0  0  0  0  0  0  0  0  0  0  0
  1  3  1  0
  1  6  1  0
  1  9  1  0
  1 22  1  0
  2  7  1  0
  2  8  2  3
  3 13  1  0
  3 18  1  0
  3 23  1  0
  4  6  1  0
  4 14  1  0
  4 16  1  0
  4 17  1  0
  5  6  1  0
  5  8  1  0
  5 10  1  0
  5 11  1  0
  6 12  1  0
  7 19  1  0
  7 20  1  0
  7 21  1  0
  8 15  1  0
M  END
